** sch_path: /home/impact/Documents/truncation_SRAM/schematic/truncation_SRAM.sch
.subckt truncation_SRAM DataOut0 DataOut1 DataOut2 DataOut3 DataOut4 DataOut5 DataOut6 DataOut7
+ DataOut8 DataOut9 DataOut10 DataOut11 DataOut12 DataOut13 DataOut14 DataOut15 DataOut16 DataOut17 DataOut18
+ DataOut19 DataOut20 DataOut21 DataOut22 DataOut23 DataOut24 DataOut25 DataOut26 DataOut27 DataOut28 DataOut29
+ DataOut30 DataOut31 Trunk0 Trunk1 Trunk2 Trunk3 Trunk4 Trunk5 Trunk6 Trunk7 Trunk8 Trunk9 Trunk10 Trunk11
+ Trunk12 Trunk13 Trunk14 Trunk15 Trunk16 Trunk17 Trunk18 Trunk19 Trunk20 Trunk21 Trunk22 Trunk23 Trunk24
+ Trunk25 Trunk26 Trunk27 Trunk28 Trunk29 Trunk30 Trunk31 DataIn30 DataIn29 DataIn28 DataIn27 DataIn26
+ DataIn25 DataIn24 DataIn23 DataIn22 DataIn21 DataIn20 DataIn19 DataIn18 DataIn17 DataIn16 DataIn15 DataIn14
+ DataIn13 DataIn12 DataIn11 DataIn10 DataIn9 DataIn8 DataIn7 DataIn6 DataIn5 DataIn4 DataIn3 DataIn2 DataIn1
+ DataIn0 DataIn31 PRE writeen readen WL0 WL1 WL2 WL3 WL4 WL5 WL6 WL7 WL8 WL9 WL10 WL11 WL12 WL13 WL14 WL15
+ WL16 WL17 WL18 WL19 WL20 WL21 WL22 WL23 WL24 WL25 WL26 WL27 WL28 WL29 WL30 WL31 WL32 WL33 WL34 WL35 WL36
+ WL37 WL38 WL39 WL40 WL41 WL42 WL43 WL44 WL45 WL46 WL47 WL48 WL49 WL50 WL51 WL52 WL53 WL54 WL55 WL56 WL57
+ WL58 WL59 WL60 WL61 WL62 WL63 WL64 WL65 WL66 WL67 WL68 WL69 WL70 WL71 WL72 WL73 WL74 WL75 WL76 WL77 WL78
+ WL79 WL80 WL81 WL82 WL83 WL84 WL85 WL86 WL87 WL88 WL89 WL90 WL91 WL92 WL93 WL94 WL95 WL96 WL97 WL98 WL99
+ WL100 WL101 WL102 WL103 WL104 WL105 WL106 WL107 WL108 WL109 WL110 WL111 WL112 WL113 WL114 WL115 WL116
+ WL117 WL118 WL119 WL120 WL121 WL122 WL123 WL124 WL125 WL126 WL127 WL128 WL129 WL130 WL131 WL132 WL133
+ WL134 WL135 WL136 WL137 WL138 WL139 WL140 WL141 WL142 WL143 WL144 WL145 WL146 WL147 WL148 WL149 WL150
+ WL151 WL152 WL153 WL154 WL155 WL156 WL157 WL158 WL159 WL160 WL161 WL162 WL163 WL164 WL165 WL166 WL167
+ WL168 WL169 WL170 WL171 WL172 WL173 WL174 WL175 WL176 WL177 WL178 WL179 WL180 WL181 WL182 WL183 WL184
+ WL185 WL186 WL187 WL188 WL189 WL190 WL191 WL192 WL193 WL194 WL195 WL196 WL197 WL198 WL199 WL200 WL201
+ WL202 WL203 WL204 WL205 WL206 WL207 WL208 WL209 WL210 WL211 WL212 WL213 WL214 WL215 WL216 WL217 WL218
+ WL219 WL220 WL221 WL222 WL223 WL224 WL225 WL226 WL227 WL228 WL229 WL230 WL231 WL232 WL233 WL234 WL235
+ WL236 WL237 WL238 WL239 WL240 WL241 WL242 WL243 WL244 WL245 WL246 WL247 WL248 WL249 WL250 WL251 WL252
+ WL253 WL254 WL255 WL256 WL257 WL258 WL259 WL260 WL261 WL262 WL263 WL264 WL265 WL266 WL267 WL268 WL269
+ WL270 WL271 WL272 WL273 WL274 WL275 WL276 WL277 WL278 WL279 WL280 WL281 WL282 WL283 WL284 WL285 WL286
+ WL287 WL288 WL289 WL290 WL291 WL292 WL293 WL294 WL295 WL296 WL297 WL298 WL299 WL300 WL301 WL302 WL303
+ WL304 WL305 WL306 WL307 WL308 WL309 WL310 WL311 WL312 WL313 WL314 WL315 WL316 WL317 WL318 WL319 WL320
+ WL321 WL322 WL323 WL324 WL325 WL326 WL327 WL328 WL329 WL330 WL331 WL332 WL333 WL334 WL335 WL336 WL337
+ WL338 WL339 WL340 WL341 WL342 WL343 WL344 WL345 WL346 WL347 WL348 WL349 WL350 WL351 WL352 WL353 WL354
+ WL355 WL356 WL357 WL358 WL359 WL360 WL361 WL362 WL363 WL364 WL365 WL366 WL367 WL368 WL369 WL370 WL371
+ WL372 WL373 WL374 WL375 WL376 WL377 WL378 WL379 WL380 WL381 WL382 WL383 WL384 WL385 WL386 WL387 WL388
+ WL389 WL390 WL391 WL392 WL393 WL394 WL395 WL396 WL397 WL398 WL399 WL400 WL401 WL402 WL403 WL404 WL405
+ WL406 WL407 WL408 WL409 WL410 WL411 WL412 WL413 WL414 WL415 WL416 WL417 WL418 WL419 WL420 WL421 WL422
+ WL423 WL424 WL425 WL426 WL427 WL428 WL429 WL430 WL431 WL432 WL433 WL434 WL435 WL436 WL437 WL438 WL439
+ WL440 WL441 WL442 WL443 WL444 WL445 WL446 WL447 WL448 WL449 WL450 WL451 WL452 WL453 WL454 WL455 WL456
+ WL457 WL458 WL459 WL460 WL461 WL462 WL463 WL464 WL465 WL466 WL467 WL468 WL469 WL470 WL471 WL472 WL473
+ WL474 WL475 WL476 WL477 WL478 WL479 WL480 WL481 WL482 WL483 WL484 WL485 WL486 WL487 WL488 WL489 WL490
+ WL491 WL492 WL493 WL494 WL495 WL496 WL497 WL498 WL499 WL500 WL501 WL502 WL503 WL504 WL505 WL506 WL507
+ WL508 WL509 WL510 WL511 WL512 WL513 WL514 WL515 WL516 WL517 WL518 WL519 WL520 WL521 WL522 WL523 WL524
+ WL525 WL526 WL527 WL528 WL529 WL530 WL531 WL532 WL533 WL534 WL535 WL536 WL537 WL538 WL539 WL540 WL541
+ WL542 WL543 WL544 WL545 WL546 WL547 WL548 WL549 WL550 WL551 WL552 WL553 WL554 WL555 WL556 WL557 WL558
+ WL559 WL560 WL561 WL562 WL563 WL564 WL565 WL566 WL567 WL568 WL569 WL570 WL571 WL572 WL573 WL574 WL575
+ WL576 WL577 WL578 WL579 WL580 WL581 WL582 WL583 WL584 WL585 WL586 WL587 WL588 WL589 WL590 WL591 WL592
+ WL593 WL594 WL595 WL596 WL597 WL598 WL599 WL600 WL601 WL602 WL603 WL604 WL605 WL606 WL607 WL608 WL609
+ WL610 WL611 WL612 WL613 WL614 WL615 WL616 WL617 WL618 WL619 WL620 WL621 WL622 WL623 WL624 WL625 WL626
+ WL627 WL628 WL629 WL630 WL631 WL632 WL633 WL634 WL635 WL636 WL637 WL638 WL639 WL640 WL641 WL642 WL643
+ WL644 WL645 WL646 WL647 WL648 WL649 WL650 WL651 WL652 WL653 WL654 WL655 WL656 WL657 WL658 WL659 WL660
+ WL661 WL662 WL663 WL664 WL665 WL666 WL667 WL668 WL669 WL670 WL671 WL672 WL673 WL674 WL675 WL676 WL677
+ WL678 WL679 WL680 WL681 WL682 WL683 WL684 WL685 WL686 WL687 WL688 WL689 WL690 WL691 WL692 WL693 WL694
+ WL695 WL696 WL697 WL698 WL699 WL700 WL701 WL702 WL703 WL704 WL705 WL706 WL707 WL708 WL709 WL710 WL711
+ WL712 WL713 WL714 WL715 WL716 WL717 WL718 WL719 WL720 WL721 WL722 WL723 WL724 WL725 WL726 WL727 WL728
+ WL729 WL730 WL731 WL732 WL733 WL734 WL735 WL736 WL737 WL738 WL739 WL740 WL741 WL742 WL743 WL744 WL745
+ WL746 WL747 WL748 WL749 WL750 WL751 WL752 WL753 WL754 WL755 WL756 WL757 WL758 WL759 WL760 WL761 WL762
+ WL763 WL764 WL765 WL766 WL767 WL768 WL769 WL770 WL771 WL772 WL773 WL774 WL775 WL776 WL777 WL778 WL779
+ WL780 WL781 WL782 WL783 WL784 WL785 WL786 WL787 WL788 WL789 WL790 WL791 WL792 WL793 WL794 WL795 WL796
+ WL797 WL798 WL799 WL800 WL801 WL802 WL803 WL804 WL805 WL806 WL807 WL808 WL809 WL810 WL811 WL812 WL813
+ WL814 WL815 WL816 WL817 WL818 WL819 WL820 WL821 WL822 WL823 WL824 WL825 WL826 WL827 WL828 WL829 WL830
+ WL831 WL832 WL833 WL834 WL835 WL836 WL837 WL838 WL839 WL840 WL841 WL842 WL843 WL844 WL845 WL846 WL847
+ WL848 WL849 WL850 WL851 WL852 WL853 WL854 WL855 WL856 WL857 WL858 WL859 WL860 WL861 WL862 WL863 WL864
+ WL865 WL866 WL867 WL868 WL869 WL870 WL871 WL872 WL873 WL874 WL875 WL876 WL877 WL878 WL879 WL880 WL881
+ WL882 WL883 WL884 WL885 WL886 WL887 WL888 WL889 WL890 WL891 WL892 WL893 WL894 WL895 WL896 WL897 WL898
+ WL899 WL900 WL901 WL902 WL903 WL904 WL905 WL906 WL907 WL908 WL909 WL910 WL911 WL912 WL913 WL914 WL915
+ WL916 WL917 WL918 WL919 WL920 WL921 WL922 WL923 WL924 WL925 WL926 WL927 WL928 WL929 WL930 WL931 WL932
+ WL933 WL934 WL935 WL936 WL937 WL938 WL939 WL940 WL941 WL942 WL943 WL944 WL945 WL946 WL947 WL948 WL949
+ WL950 WL951 WL952 WL953 WL954 WL955 WL956 WL957 WL958 WL959 WL960 WL961 WL962 WL963 WL964 WL965 WL966
+ WL967 WL968 WL969 WL970 WL971 WL972 WL973 WL974 WL975 WL976 WL977 WL978 WL979 WL980 WL981 WL982 WL983
+ WL984 WL985 WL986 WL987 WL988 WL989 WL990 WL991 WL992 WL993 WL994 WL995 WL996 WL997 WL998 WL999 WL1000
+ WL1001 WL1002 WL1003 WL1004 WL1005 WL1006 WL1007 WL1008 WL1009 WL1010 WL1011 WL1012 WL1013 WL1014 WL1015
+ WL1016 WL1017 WL1018 WL1019 WL1020 WL1021 WL1022 WL1023 vssd1 vccd1 Tail_In Byte_Mode_EnableBar
*.PININFO DataOut0:O DataOut1:O DataOut2:O DataOut3:O DataOut4:O DataOut5:O DataOut6:O DataOut7:O
*+ DataOut8:O DataOut9:O DataOut10:O DataOut11:O DataOut12:O DataOut13:O DataOut14:O DataOut15:O DataOut16:O
*+ DataOut17:O DataOut18:O DataOut19:O DataOut20:O DataOut21:O DataOut22:O DataOut23:O DataOut24:O DataOut25:O
*+ DataOut26:O DataOut27:O DataOut28:O DataOut29:O DataOut30:O DataOut31:O Trunk0:I Trunk1:I Trunk2:I Trunk3:I
*+ Trunk4:I Trunk5:I Trunk6:I Trunk7:I Trunk8:I Trunk9:I Trunk10:I Trunk11:I Trunk12:I Trunk13:I Trunk14:I
*+ Trunk15:I Trunk16:I Trunk17:I Trunk18:I Trunk19:I Trunk20:I Trunk21:I Trunk22:I Trunk23:I Trunk24:I Trunk25:I
*+ Trunk26:I Trunk27:I Trunk28:I Trunk29:I Trunk30:I Trunk31:I DataIn30:I DataIn29:I DataIn28:I DataIn27:I
*+ DataIn26:I DataIn25:I DataIn24:I DataIn23:I DataIn22:I DataIn21:I DataIn20:I DataIn19:I DataIn18:I DataIn17:I
*+ DataIn16:I DataIn15:I DataIn14:I DataIn13:I DataIn12:I DataIn11:I DataIn10:I DataIn9:I DataIn8:I DataIn7:I
*+ DataIn6:I DataIn5:I DataIn4:I DataIn3:I DataIn2:I DataIn1:I DataIn0:I DataIn31:I PRE:I writeen:I readen:I
*+ WL0:I WL1:I WL2:I WL3:I WL4:I WL5:I WL6:I WL7:I WL8:I WL9:I WL10:I WL11:I WL12:I WL13:I WL14:I WL15:I
*+ WL16:I WL17:I WL18:I WL19:I WL20:I WL21:I WL22:I WL23:I WL24:I WL25:I WL26:I WL27:I WL28:I WL29:I WL30:I
*+ WL31:I WL32:I WL33:I WL34:I WL35:I WL36:I WL37:I WL38:I WL39:I WL40:I WL41:I WL42:I WL43:I WL44:I WL45:I
*+ WL46:I WL47:I WL48:I WL49:I WL50:I WL51:I WL52:I WL53:I WL54:I WL55:I WL56:I WL57:I WL58:I WL59:I WL60:I
*+ WL61:I WL62:I WL63:I WL64:I WL65:I WL66:I WL67:I WL68:I WL69:I WL70:I WL71:I WL72:I WL73:I WL74:I WL75:I
*+ WL76:I WL77:I WL78:I WL79:I WL80:I WL81:I WL82:I WL83:I WL84:I WL85:I WL86:I WL87:I WL88:I WL89:I WL90:I
*+ WL91:I WL92:I WL93:I WL94:I WL95:I WL96:I WL97:I WL98:I WL99:I WL100:I WL101:I WL102:I WL103:I WL104:I
*+ WL105:I WL106:I WL107:I WL108:I WL109:I WL110:I WL111:I WL112:I WL113:I WL114:I WL115:I WL116:I WL117:I
*+ WL118:I WL119:I WL120:I WL121:I WL122:I WL123:I WL124:I WL125:I WL126:I WL127:I WL128:I WL129:I WL130:I
*+ WL131:I WL132:I WL133:I WL134:I WL135:I WL136:I WL137:I WL138:I WL139:I WL140:I WL141:I WL142:I WL143:I
*+ WL144:I WL145:I WL146:I WL147:I WL148:I WL149:I WL150:I WL151:I WL152:I WL153:I WL154:I WL155:I WL156:I
*+ WL157:I WL158:I WL159:I WL160:I WL161:I WL162:I WL163:I WL164:I WL165:I WL166:I WL167:I WL168:I WL169:I
*+ WL170:I WL171:I WL172:I WL173:I WL174:I WL175:I WL176:I WL177:I WL178:I WL179:I WL180:I WL181:I WL182:I
*+ WL183:I WL184:I WL185:I WL186:I WL187:I WL188:I WL189:I WL190:I WL191:I WL192:I WL193:I WL194:I WL195:I
*+ WL196:I WL197:I WL198:I WL199:I WL200:I WL201:I WL202:I WL203:I WL204:I WL205:I WL206:I WL207:I WL208:I
*+ WL209:I WL210:I WL211:I WL212:I WL213:I WL214:I WL215:I WL216:I WL217:I WL218:I WL219:I WL220:I WL221:I
*+ WL222:I WL223:I WL224:I WL225:I WL226:I WL227:I WL228:I WL229:I WL230:I WL231:I WL232:I WL233:I WL234:I
*+ WL235:I WL236:I WL237:I WL238:I WL239:I WL240:I WL241:I WL242:I WL243:I WL244:I WL245:I WL246:I WL247:I
*+ WL248:I WL249:I WL250:I WL251:I WL252:I WL253:I WL254:I WL255:I WL256:I WL257:I WL258:I WL259:I WL260:I
*+ WL261:I WL262:I WL263:I WL264:I WL265:I WL266:I WL267:I WL268:I WL269:I WL270:I WL271:I WL272:I WL273:I
*+ WL274:I WL275:I WL276:I WL277:I WL278:I WL279:I WL280:I WL281:I WL282:I WL283:I WL284:I WL285:I WL286:I
*+ WL287:I WL288:I WL289:I WL290:I WL291:I WL292:I WL293:I WL294:I WL295:I WL296:I WL297:I WL298:I WL299:I
*+ WL300:I WL301:I WL302:I WL303:I WL304:I WL305:I WL306:I WL307:I WL308:I WL309:I WL310:I WL311:I WL312:I
*+ WL313:I WL314:I WL315:I WL316:I WL317:I WL318:I WL319:I WL320:I WL321:I WL322:I WL323:I WL324:I WL325:I
*+ WL326:I WL327:I WL328:I WL329:I WL330:I WL331:I WL332:I WL333:I WL334:I WL335:I WL336:I WL337:I WL338:I
*+ WL339:I WL340:I WL341:I WL342:I WL343:I WL344:I WL345:I WL346:I WL347:I WL348:I WL349:I WL350:I WL351:I
*+ WL352:I WL353:I WL354:I WL355:I WL356:I WL357:I WL358:I WL359:I WL360:I WL361:I WL362:I WL363:I WL364:I
*+ WL365:I WL366:I WL367:I WL368:I WL369:I WL370:I WL371:I WL372:I WL373:I WL374:I WL375:I WL376:I WL377:I
*+ WL378:I WL379:I WL380:I WL381:I WL382:I WL383:I WL384:I WL385:I WL386:I WL387:I WL388:I WL389:I WL390:I
*+ WL391:I WL392:I WL393:I WL394:I WL395:I WL396:I WL397:I WL398:I WL399:I WL400:I WL401:I WL402:I WL403:I
*+ WL404:I WL405:I WL406:I WL407:I WL408:I WL409:I WL410:I WL411:I WL412:I WL413:I WL414:I WL415:I WL416:I
*+ WL417:I WL418:I WL419:I WL420:I WL421:I WL422:I WL423:I WL424:I WL425:I WL426:I WL427:I WL428:I WL429:I
*+ WL430:I WL431:I WL432:I WL433:I WL434:I WL435:I WL436:I WL437:I WL438:I WL439:I WL440:I WL441:I WL442:I
*+ WL443:I WL444:I WL445:I WL446:I WL447:I WL448:I WL449:I WL450:I WL451:I WL452:I WL453:I WL454:I WL455:I
*+ WL456:I WL457:I WL458:I WL459:I WL460:I WL461:I WL462:I WL463:I WL464:I WL465:I WL466:I WL467:I WL468:I
*+ WL469:I WL470:I WL471:I WL472:I WL473:I WL474:I WL475:I WL476:I WL477:I WL478:I WL479:I WL480:I WL481:I
*+ WL482:I WL483:I WL484:I WL485:I WL486:I WL487:I WL488:I WL489:I WL490:I WL491:I WL492:I WL493:I WL494:I
*+ WL495:I WL496:I WL497:I WL498:I WL499:I WL500:I WL501:I WL502:I WL503:I WL504:I WL505:I WL506:I WL507:I
*+ WL508:I WL509:I WL510:I WL511:I WL512:I WL513:I WL514:I WL515:I WL516:I WL517:I WL518:I WL519:I WL520:I
*+ WL521:I WL522:I WL523:I WL524:I WL525:I WL526:I WL527:I WL528:I WL529:I WL530:I WL531:I WL532:I WL533:I
*+ WL534:I WL535:I WL536:I WL537:I WL538:I WL539:I WL540:I WL541:I WL542:I WL543:I WL544:I WL545:I WL546:I
*+ WL547:I WL548:I WL549:I WL550:I WL551:I WL552:I WL553:I WL554:I WL555:I WL556:I WL557:I WL558:I WL559:I
*+ WL560:I WL561:I WL562:I WL563:I WL564:I WL565:I WL566:I WL567:I WL568:I WL569:I WL570:I WL571:I WL572:I
*+ WL573:I WL574:I WL575:I WL576:I WL577:I WL578:I WL579:I WL580:I WL581:I WL582:I WL583:I WL584:I WL585:I
*+ WL586:I WL587:I WL588:I WL589:I WL590:I WL591:I WL592:I WL593:I WL594:I WL595:I WL596:I WL597:I WL598:I
*+ WL599:I WL600:I WL601:I WL602:I WL603:I WL604:I WL605:I WL606:I WL607:I WL608:I WL609:I WL610:I WL611:I
*+ WL612:I WL613:I WL614:I WL615:I WL616:I WL617:I WL618:I WL619:I WL620:I WL621:I WL622:I WL623:I WL624:I
*+ WL625:I WL626:I WL627:I WL628:I WL629:I WL630:I WL631:I WL632:I WL633:I WL634:I WL635:I WL636:I WL637:I
*+ WL638:I WL639:I WL640:I WL641:I WL642:I WL643:I WL644:I WL645:I WL646:I WL647:I WL648:I WL649:I WL650:I
*+ WL651:I WL652:I WL653:I WL654:I WL655:I WL656:I WL657:I WL658:I WL659:I WL660:I WL661:I WL662:I WL663:I
*+ WL664:I WL665:I WL666:I WL667:I WL668:I WL669:I WL670:I WL671:I WL672:I WL673:I WL674:I WL675:I WL676:I
*+ WL677:I WL678:I WL679:I WL680:I WL681:I WL682:I WL683:I WL684:I WL685:I WL686:I WL687:I WL688:I WL689:I
*+ WL690:I WL691:I WL692:I WL693:I WL694:I WL695:I WL696:I WL697:I WL698:I WL699:I WL700:I WL701:I WL702:I
*+ WL703:I WL704:I WL705:I WL706:I WL707:I WL708:I WL709:I WL710:I WL711:I WL712:I WL713:I WL714:I WL715:I
*+ WL716:I WL717:I WL718:I WL719:I WL720:I WL721:I WL722:I WL723:I WL724:I WL725:I WL726:I WL727:I WL728:I
*+ WL729:I WL730:I WL731:I WL732:I WL733:I WL734:I WL735:I WL736:I WL737:I WL738:I WL739:I WL740:I WL741:I
*+ WL742:I WL743:I WL744:I WL745:I WL746:I WL747:I WL748:I WL749:I WL750:I WL751:I WL752:I WL753:I WL754:I
*+ WL755:I WL756:I WL757:I WL758:I WL759:I WL760:I WL761:I WL762:I WL763:I WL764:I WL765:I WL766:I WL767:I
*+ WL768:I WL769:I WL770:I WL771:I WL772:I WL773:I WL774:I WL775:I WL776:I WL777:I WL778:I WL779:I WL780:I
*+ WL781:I WL782:I WL783:I WL784:I WL785:I WL786:I WL787:I WL788:I WL789:I WL790:I WL791:I WL792:I WL793:I
*+ WL794:I WL795:I WL796:I WL797:I WL798:I WL799:I WL800:I WL801:I WL802:I WL803:I WL804:I WL805:I WL806:I
*+ WL807:I WL808:I WL809:I WL810:I WL811:I WL812:I WL813:I WL814:I WL815:I WL816:I WL817:I WL818:I WL819:I
*+ WL820:I WL821:I WL822:I WL823:I WL824:I WL825:I WL826:I WL827:I WL828:I WL829:I WL830:I WL831:I WL832:I
*+ WL833:I WL834:I WL835:I WL836:I WL837:I WL838:I WL839:I WL840:I WL841:I WL842:I WL843:I WL844:I WL845:I
*+ WL846:I WL847:I WL848:I WL849:I WL850:I WL851:I WL852:I WL853:I WL854:I WL855:I WL856:I WL857:I WL858:I
*+ WL859:I WL860:I WL861:I WL862:I WL863:I WL864:I WL865:I WL866:I WL867:I WL868:I WL869:I WL870:I WL871:I
*+ WL872:I WL873:I WL874:I WL875:I WL876:I WL877:I WL878:I WL879:I WL880:I WL881:I WL882:I WL883:I WL884:I
*+ WL885:I WL886:I WL887:I WL888:I WL889:I WL890:I WL891:I WL892:I WL893:I WL894:I WL895:I WL896:I WL897:I
*+ WL898:I WL899:I WL900:I WL901:I WL902:I WL903:I WL904:I WL905:I WL906:I WL907:I WL908:I WL909:I WL910:I
*+ WL911:I WL912:I WL913:I WL914:I WL915:I WL916:I WL917:I WL918:I WL919:I WL920:I WL921:I WL922:I WL923:I
*+ WL924:I WL925:I WL926:I WL927:I WL928:I WL929:I WL930:I WL931:I WL932:I WL933:I WL934:I WL935:I WL936:I
*+ WL937:I WL938:I WL939:I WL940:I WL941:I WL942:I WL943:I WL944:I WL945:I WL946:I WL947:I WL948:I WL949:I
*+ WL950:I WL951:I WL952:I WL953:I WL954:I WL955:I WL956:I WL957:I WL958:I WL959:I WL960:I WL961:I WL962:I
*+ WL963:I WL964:I WL965:I WL966:I WL967:I WL968:I WL969:I WL970:I WL971:I WL972:I WL973:I WL974:I WL975:I
*+ WL976:I WL977:I WL978:I WL979:I WL980:I WL981:I WL982:I WL983:I WL984:I WL985:I WL986:I WL987:I WL988:I
*+ WL989:I WL990:I WL991:I WL992:I WL993:I WL994:I WL995:I WL996:I WL997:I WL998:I WL999:I WL1000:I WL1001:I
*+ WL1002:I WL1003:I WL1004:I WL1005:I WL1006:I WL1007:I WL1008:I WL1009:I WL1010:I WL1011:I WL1012:I WL1013:I
*+ WL1014:I WL1015:I WL1016:I WL1017:I WL1018:I WL1019:I WL1020:I WL1021:I WL1022:I WL1023:I vssd1:B vccd1:B
*+ Tail_In:I Byte_Mode_EnableBar:B
x1 DataOut31 DataOut30 DataOut29 DataOut28 DataOut27 DataOut26 DataOut25 DataOut24 DataOut23
+ DataOut22 DataOut21 DataOut20 DataOut19 DataOut18 DataOut17 DataOut16 DataOut15 DataOut14 DataOut13 DataOut12
+ DataOut11 DataOut10 DataOut9 DataOut8 DataOut7 DataOut6 DataOut5 DataOut4 DataOut3 DataOut2 DataOut1 DataOut0
+ Trunk0 Trunk1 Trunk2 Trunk3 Trunk4 Trunk5 Trunk6 Trunk7 Trunk8 Trunk9 Trunk10 Trunk11 Trunk12 Trunk13
+ Trunk14 Trunk15 Trunk16 Trunk17 Trunk18 Trunk19 Trunk20 Trunk21 Trunk22 Trunk23 Trunk24 Trunk25 Trunk26
+ Trunk27 Trunk28 Trunk29 Trunk30 Trunk31 Tail_In net1 vccd1 vssd1 Byte_Mode_EnableBar PRE writeen readen
+ DataIn31 DataIn30 DataIn29 DataIn28 DataIn27 DataIn26 DataIn25 DataIn24 DataIn23 DataIn22 DataIn21 DataIn20
+ DataIn19 DataIn18 DataIn17 DataIn16 DataIn15 DataIn14 DataIn13 DataIn12 DataIn11 DataIn10 DataIn9 DataIn8
+ DataIn7 DataIn6 DataIn5 DataIn4 DataIn3 DataIn2 DataIn1 DataIn0 WL0 WL1 WL2 WL3 WL4 WL5 WL6 WL7 WL8 WL9
+ WL10 WL11 WL12 WL13 WL14 WL15 WL16 WL17 WL18 WL19 WL20 WL21 WL22 WL23 WL24 WL25 WL26 WL27 WL28 WL29 WL30
+ WL31 WL32 WL33 WL34 WL35 WL36 WL37 WL38 WL39 WL40 WL41 WL42 WL43 WL44 WL45 WL46 WL47 WL48 WL49 WL50 WL51
+ WL52 WL53 WL54 WL55 WL56 WL57 WL58 WL59 WL60 WL61 WL62 WL63 WL64 WL65 WL66 WL67 WL68 WL69 WL70 WL71 WL72
+ WL73 WL74 WL75 WL76 WL77 WL78 WL79 WL80 WL81 WL82 WL83 WL84 WL85 WL86 WL87 WL88 WL89 WL90 WL91 WL92 WL93
+ WL94 WL95 WL96 WL97 WL98 WL99 WL100 WL101 WL102 WL103 WL104 WL105 WL106 WL107 WL108 WL109 WL110 WL111
+ WL112 WL113 WL114 WL115 WL116 WL117 WL118 WL119 WL120 WL121 WL122 WL123 WL124 WL125 WL126 WL127 WL128
+ WL129 WL130 WL131 WL132 WL133 WL134 WL135 WL136 WL137 WL138 WL139 WL140 WL141 WL142 WL143 WL144 WL145
+ WL146 WL147 WL148 WL149 WL150 WL151 WL152 WL153 WL154 WL155 WL156 WL157 WL158 WL159 WL160 WL161 WL162
+ WL163 WL164 WL165 WL166 WL167 WL168 WL169 WL170 WL171 WL172 WL173 WL174 WL175 WL176 WL177 WL178 WL179
+ WL180 WL181 WL182 WL183 WL184 WL185 WL186 WL187 WL188 WL189 WL190 WL191 WL192 WL193 WL194 WL195 WL196
+ WL197 WL198 WL199 WL200 WL201 WL202 WL203 WL204 WL205 WL206 WL207 WL208 WL209 WL210 WL211 WL212 WL213
+ WL214 WL215 WL216 WL217 WL218 WL219 WL220 WL221 WL222 WL223 WL224 WL225 WL226 WL227 WL228 WL229 WL230
+ WL231 WL232 WL233 WL234 WL235 WL236 WL237 WL238 WL239 WL240 WL241 WL242 WL243 WL244 WL245 WL246 WL247
+ WL248 WL249 WL250 WL251 WL252 WL253 WL254 WL255 WL256 WL257 WL258 WL259 WL260 WL261 WL262 WL263 WL264
+ WL265 WL266 WL267 WL268 WL269 WL270 WL271 WL272 WL273 WL274 WL275 WL276 WL277 WL278 WL279 WL280 WL281
+ WL282 WL283 WL284 WL285 WL286 WL287 WL288 WL289 WL290 WL291 WL292 WL293 WL294 WL295 WL296 WL297 WL298
+ WL299 WL300 WL301 WL302 WL303 WL304 WL305 WL306 WL307 WL308 WL309 WL310 WL311 WL312 WL313 WL314 WL315
+ WL316 WL317 WL318 WL319 WL320 WL321 WL322 WL323 WL324 WL325 WL326 WL327 WL328 WL329 WL330 WL331 WL332
+ WL333 WL334 WL335 WL336 WL337 WL338 WL339 WL340 WL341 WL342 WL343 WL344 WL345 WL346 WL347 WL348 WL349
+ WL350 WL351 WL352 WL353 WL354 WL355 WL356 WL357 WL358 WL359 WL360 WL361 WL362 WL363 WL364 WL365 WL366
+ WL367 WL368 WL369 WL370 WL371 WL372 WL373 WL374 WL375 WL376 WL377 WL378 WL379 WL380 WL381 WL382 WL383
+ WL384 WL385 WL386 WL387 WL388 WL389 WL390 WL391 WL392 WL393 WL394 WL395 WL396 WL397 WL398 WL399 WL400
+ WL401 WL402 WL403 WL404 WL405 WL406 WL407 WL408 WL409 WL410 WL411 WL412 WL413 WL414 WL415 WL416 WL417
+ WL418 WL419 WL420 WL421 WL422 WL423 WL424 WL425 WL426 WL427 WL428 WL429 WL430 WL431 WL432 WL433 WL434
+ WL435 WL436 WL437 WL438 WL439 WL440 WL441 WL442 WL443 WL444 WL445 WL446 WL447 WL448 WL449 WL450 WL451
+ WL452 WL453 WL454 WL455 WL456 WL457 WL458 WL459 WL460 WL461 WL462 WL463 WL464 WL465 WL466 WL467 WL468
+ WL469 WL470 WL471 WL472 WL473 WL474 WL475 WL476 WL477 WL478 WL479 WL480 WL481 WL482 WL483 WL484 WL485
+ WL486 WL487 WL488 WL489 WL490 WL491 WL492 WL493 WL494 WL495 WL496 WL497 WL498 WL499 WL500 WL501 WL502
+ WL503 WL504 WL505 WL506 WL507 WL508 WL509 WL510 WL511 WL512 WL513 WL514 WL515 WL516 WL517 WL518 WL519
+ WL520 WL521 WL522 WL523 WL524 WL525 WL526 WL527 WL528 WL529 WL530 WL531 WL532 WL533 WL534 WL535 WL536
+ WL537 WL538 WL539 WL540 WL541 WL542 WL543 WL544 WL545 WL546 WL547 WL548 WL549 WL550 WL551 WL552 WL553
+ WL554 WL555 WL556 WL557 WL558 WL559 WL560 WL561 WL562 WL563 WL564 WL565 WL566 WL567 WL568 WL569 WL570
+ WL571 WL572 WL573 WL574 WL575 WL576 WL577 WL578 WL579 WL580 WL581 WL582 WL583 WL584 WL585 WL586 WL587
+ WL588 WL589 WL590 WL591 WL592 WL593 WL594 WL595 WL596 WL597 WL598 WL599 WL600 WL601 WL602 WL603 WL604
+ WL605 WL606 WL607 WL608 WL609 WL610 WL611 WL612 WL613 WL614 WL615 WL616 WL617 WL618 WL619 WL620 WL621
+ WL622 WL623 WL624 WL625 WL626 WL627 WL628 WL629 WL630 WL631 WL632 WL633 WL634 WL635 WL636 WL637 WL638
+ WL639 WL640 WL641 WL642 WL643 WL644 WL645 WL646 WL647 WL648 WL649 WL650 WL651 WL652 WL653 WL654 WL655
+ WL656 WL657 WL658 WL659 WL660 WL661 WL662 WL663 WL664 WL665 WL666 WL667 WL668 WL669 WL670 WL671 WL672
+ WL673 WL674 WL675 WL676 WL677 WL678 WL679 WL680 WL681 WL682 WL683 WL684 WL685 WL686 WL687 WL688 WL689
+ WL690 WL691 WL692 WL693 WL694 WL695 WL696 WL697 WL698 WL699 WL700 WL701 WL702 WL703 WL704 WL705 WL706
+ WL707 WL708 WL709 WL710 WL711 WL712 WL713 WL714 WL715 WL716 WL717 WL718 WL719 WL720 WL721 WL722 WL723
+ WL724 WL725 WL726 WL727 WL728 WL729 WL730 WL731 WL732 WL733 WL734 WL735 WL736 WL737 WL738 WL739 WL740
+ WL741 WL742 WL743 WL744 WL745 WL746 WL747 WL748 WL749 WL750 WL751 WL752 WL753 WL754 WL755 WL756 WL757
+ WL758 WL759 WL760 WL761 WL762 WL763 WL764 WL765 WL766 WL767 WL768 WL769 WL770 WL771 WL772 WL773 WL774
+ WL775 WL776 WL777 WL778 WL779 WL780 WL781 WL782 WL783 WL784 WL785 WL786 WL787 WL788 WL789 WL790 WL791
+ WL792 WL793 WL794 WL795 WL796 WL797 WL798 WL799 WL800 WL801 WL802 WL803 WL804 WL805 WL806 WL807 WL808
+ WL809 WL810 WL811 WL812 WL813 WL814 WL815 WL816 WL817 WL818 WL819 WL820 WL821 WL822 WL823 WL824 WL825
+ WL826 WL827 WL828 WL829 WL830 WL831 WL832 WL833 WL834 WL835 WL836 WL837 WL838 WL839 WL840 WL841 WL842
+ WL843 WL844 WL845 WL846 WL847 WL848 WL849 WL850 WL851 WL852 WL853 WL854 WL855 WL856 WL857 WL858 WL859
+ WL860 WL861 WL862 WL863 WL864 WL865 WL866 WL867 WL868 WL869 WL870 WL871 WL872 WL873 WL874 WL875 WL876
+ WL877 WL878 WL879 WL880 WL881 WL882 WL883 WL884 WL885 WL886 WL887 WL888 WL889 WL890 WL891 WL892 WL893
+ WL894 WL895 WL896 WL897 WL898 WL899 WL900 WL901 WL902 WL903 WL904 WL905 WL906 WL907 WL908 WL909 WL910
+ WL911 WL912 WL913 WL914 WL915 WL916 WL917 WL918 WL919 WL920 WL921 WL922 WL923 WL924 WL925 WL926 WL927
+ WL928 WL929 WL930 WL931 WL932 WL933 WL934 WL935 WL936 WL937 WL938 WL939 WL940 WL941 WL942 WL943 WL944
+ WL945 WL946 WL947 WL948 WL949 WL950 WL951 WL952 WL953 WL954 WL955 WL956 WL957 WL958 WL959 WL960 WL961
+ WL962 WL963 WL964 WL965 WL966 WL967 WL968 WL969 WL970 WL971 WL972 WL973 WL974 WL975 WL976 WL977 WL978
+ WL979 WL980 WL981 WL982 WL983 WL984 WL985 WL986 WL987 WL988 WL989 WL990 WL991 WL992 WL993 WL994 WL995
+ WL996 WL997 WL998 WL999 WL1000 WL1001 WL1002 WL1003 WL1004 WL1005 WL1006 WL1007 WL1008 WL1009 WL1010
+ WL1011 WL1012 WL1013 WL1014 WL1015 WL1016 WL1017 WL1018 WL1019 WL1020 WL1021 WL1022 WL1023
+ 32x1024_truncation_memory
.ends

* expanding   symbol:
*+  /home/impact/Documents/truncation_SRAM/schematic/32x1024_truncation_memory.sym # of pins=1128
** sym_path: /home/impact/Documents/truncation_SRAM/schematic/32x1024_truncation_memory.sym
** sch_path: /home/impact/Documents/truncation_SRAM/schematic/32x1024_truncation_memory.sch
.subckt 32x1024_truncation_memory DataOut31 DataOut30 DataOut29 DataOut28 DataOut27 DataOut26
+ DataOut25 DataOut24 DataOut23 DataOut22 DataOut21 DataOut20 DataOut19 DataOut18 DataOut17 DataOut16 DataOut15
+ DataOut14 DataOut13 DataOut12 DataOut11 DataOut10 DataOut9 DataOut8 DataOut7 DataOut6 DataOut5 DataOut4
+ DataOut3 DataOut2 DataOut1 DataOut0 Trunk0 Trunk1 Trunk2 Trunk3 Trunk4 Trunk5 Trunk6 Trunk7 Trunk8 Trunk9
+ Trunk10 Trunk11 Trunk12 Trunk13 Trunk14 Trunk15 Trunk16 Trunk17 Trunk18 Trunk19 Trunk20 Trunk21 Trunk22
+ Trunk23 Trunk24 Trunk25 Trunk26 Trunk27 Trunk28 Trunk29 Trunk30 Trunk31 Tail_In Tail_Out vccd1 vssd1
+ Byte_Mode_EnableBar PRE writeen readen DataIn31 DataIn30 DataIn29 DataIn28 DataIn27 DataIn26 DataIn25 DataIn24 DataIn23
+ DataIn22 DataIn21 DataIn20 DataIn19 DataIn18 DataIn17 DataIn16 DataIn15 DataIn14 DataIn13 DataIn12 DataIn11
+ DataIn10 DataIn9 DataIn8 DataIn7 DataIn6 DataIn5 DataIn4 DataIn3 DataIn2 DataIn1 DataIn0 WL0 WL1 WL2 WL3 WL4
+ WL5 WL6 WL7 WL8 WL9 WL10 WL11 WL12 WL13 WL14 WL15 WL16 WL17 WL18 WL19 WL20 WL21 WL22 WL23 WL24 WL25
+ WL26 WL27 WL28 WL29 WL30 WL31 WL32 WL33 WL34 WL35 WL36 WL37 WL38 WL39 WL40 WL41 WL42 WL43 WL44 WL45 WL46
+ WL47 WL48 WL49 WL50 WL51 WL52 WL53 WL54 WL55 WL56 WL57 WL58 WL59 WL60 WL61 WL62 WL63 WL64 WL65 WL66 WL67
+ WL68 WL69 WL70 WL71 WL72 WL73 WL74 WL75 WL76 WL77 WL78 WL79 WL80 WL81 WL82 WL83 WL84 WL85 WL86 WL87 WL88
+ WL89 WL90 WL91 WL92 WL93 WL94 WL95 WL96 WL97 WL98 WL99 WL100 WL101 WL102 WL103 WL104 WL105 WL106 WL107
+ WL108 WL109 WL110 WL111 WL112 WL113 WL114 WL115 WL116 WL117 WL118 WL119 WL120 WL121 WL122 WL123 WL124
+ WL125 WL126 WL127 WL128 WL129 WL130 WL131 WL132 WL133 WL134 WL135 WL136 WL137 WL138 WL139 WL140 WL141
+ WL142 WL143 WL144 WL145 WL146 WL147 WL148 WL149 WL150 WL151 WL152 WL153 WL154 WL155 WL156 WL157 WL158
+ WL159 WL160 WL161 WL162 WL163 WL164 WL165 WL166 WL167 WL168 WL169 WL170 WL171 WL172 WL173 WL174 WL175
+ WL176 WL177 WL178 WL179 WL180 WL181 WL182 WL183 WL184 WL185 WL186 WL187 WL188 WL189 WL190 WL191 WL192
+ WL193 WL194 WL195 WL196 WL197 WL198 WL199 WL200 WL201 WL202 WL203 WL204 WL205 WL206 WL207 WL208 WL209
+ WL210 WL211 WL212 WL213 WL214 WL215 WL216 WL217 WL218 WL219 WL220 WL221 WL222 WL223 WL224 WL225 WL226
+ WL227 WL228 WL229 WL230 WL231 WL232 WL233 WL234 WL235 WL236 WL237 WL238 WL239 WL240 WL241 WL242 WL243
+ WL244 WL245 WL246 WL247 WL248 WL249 WL250 WL251 WL252 WL253 WL254 WL255 WL256 WL257 WL258 WL259 WL260
+ WL261 WL262 WL263 WL264 WL265 WL266 WL267 WL268 WL269 WL270 WL271 WL272 WL273 WL274 WL275 WL276 WL277
+ WL278 WL279 WL280 WL281 WL282 WL283 WL284 WL285 WL286 WL287 WL288 WL289 WL290 WL291 WL292 WL293 WL294
+ WL295 WL296 WL297 WL298 WL299 WL300 WL301 WL302 WL303 WL304 WL305 WL306 WL307 WL308 WL309 WL310 WL311
+ WL312 WL313 WL314 WL315 WL316 WL317 WL318 WL319 WL320 WL321 WL322 WL323 WL324 WL325 WL326 WL327 WL328
+ WL329 WL330 WL331 WL332 WL333 WL334 WL335 WL336 WL337 WL338 WL339 WL340 WL341 WL342 WL343 WL344 WL345
+ WL346 WL347 WL348 WL349 WL350 WL351 WL352 WL353 WL354 WL355 WL356 WL357 WL358 WL359 WL360 WL361 WL362
+ WL363 WL364 WL365 WL366 WL367 WL368 WL369 WL370 WL371 WL372 WL373 WL374 WL375 WL376 WL377 WL378 WL379
+ WL380 WL381 WL382 WL383 WL384 WL385 WL386 WL387 WL388 WL389 WL390 WL391 WL392 WL393 WL394 WL395 WL396
+ WL397 WL398 WL399 WL400 WL401 WL402 WL403 WL404 WL405 WL406 WL407 WL408 WL409 WL410 WL411 WL412 WL413
+ WL414 WL415 WL416 WL417 WL418 WL419 WL420 WL421 WL422 WL423 WL424 WL425 WL426 WL427 WL428 WL429 WL430
+ WL431 WL432 WL433 WL434 WL435 WL436 WL437 WL438 WL439 WL440 WL441 WL442 WL443 WL444 WL445 WL446 WL447
+ WL448 WL449 WL450 WL451 WL452 WL453 WL454 WL455 WL456 WL457 WL458 WL459 WL460 WL461 WL462 WL463 WL464
+ WL465 WL466 WL467 WL468 WL469 WL470 WL471 WL472 WL473 WL474 WL475 WL476 WL477 WL478 WL479 WL480 WL481
+ WL482 WL483 WL484 WL485 WL486 WL487 WL488 WL489 WL490 WL491 WL492 WL493 WL494 WL495 WL496 WL497 WL498
+ WL499 WL500 WL501 WL502 WL503 WL504 WL505 WL506 WL507 WL508 WL509 WL510 WL511 WL512 WL513 WL514 WL515
+ WL516 WL517 WL518 WL519 WL520 WL521 WL522 WL523 WL524 WL525 WL526 WL527 WL528 WL529 WL530 WL531 WL532
+ WL533 WL534 WL535 WL536 WL537 WL538 WL539 WL540 WL541 WL542 WL543 WL544 WL545 WL546 WL547 WL548 WL549
+ WL550 WL551 WL552 WL553 WL554 WL555 WL556 WL557 WL558 WL559 WL560 WL561 WL562 WL563 WL564 WL565 WL566
+ WL567 WL568 WL569 WL570 WL571 WL572 WL573 WL574 WL575 WL576 WL577 WL578 WL579 WL580 WL581 WL582 WL583
+ WL584 WL585 WL586 WL587 WL588 WL589 WL590 WL591 WL592 WL593 WL594 WL595 WL596 WL597 WL598 WL599 WL600
+ WL601 WL602 WL603 WL604 WL605 WL606 WL607 WL608 WL609 WL610 WL611 WL612 WL613 WL614 WL615 WL616 WL617
+ WL618 WL619 WL620 WL621 WL622 WL623 WL624 WL625 WL626 WL627 WL628 WL629 WL630 WL631 WL632 WL633 WL634
+ WL635 WL636 WL637 WL638 WL639 WL640 WL641 WL642 WL643 WL644 WL645 WL646 WL647 WL648 WL649 WL650 WL651
+ WL652 WL653 WL654 WL655 WL656 WL657 WL658 WL659 WL660 WL661 WL662 WL663 WL664 WL665 WL666 WL667 WL668
+ WL669 WL670 WL671 WL672 WL673 WL674 WL675 WL676 WL677 WL678 WL679 WL680 WL681 WL682 WL683 WL684 WL685
+ WL686 WL687 WL688 WL689 WL690 WL691 WL692 WL693 WL694 WL695 WL696 WL697 WL698 WL699 WL700 WL701 WL702
+ WL703 WL704 WL705 WL706 WL707 WL708 WL709 WL710 WL711 WL712 WL713 WL714 WL715 WL716 WL717 WL718 WL719
+ WL720 WL721 WL722 WL723 WL724 WL725 WL726 WL727 WL728 WL729 WL730 WL731 WL732 WL733 WL734 WL735 WL736
+ WL737 WL738 WL739 WL740 WL741 WL742 WL743 WL744 WL745 WL746 WL747 WL748 WL749 WL750 WL751 WL752 WL753
+ WL754 WL755 WL756 WL757 WL758 WL759 WL760 WL761 WL762 WL763 WL764 WL765 WL766 WL767 WL768 WL769 WL770
+ WL771 WL772 WL773 WL774 WL775 WL776 WL777 WL778 WL779 WL780 WL781 WL782 WL783 WL784 WL785 WL786 WL787
+ WL788 WL789 WL790 WL791 WL792 WL793 WL794 WL795 WL796 WL797 WL798 WL799 WL800 WL801 WL802 WL803 WL804
+ WL805 WL806 WL807 WL808 WL809 WL810 WL811 WL812 WL813 WL814 WL815 WL816 WL817 WL818 WL819 WL820 WL821